
#######################################################################
#
#                 Cambridge Crystallographic Data Centre
#                                CCDC 
#
#######################################################################
#
# If this CIF has been generated directly or indirectly from an entry in the 
# Cambridge Structural Database, then it will include bibliographic, chemical, 
# crystal, experimental, refinement or atomic coordinate data resulting from 
# the CCDC's data processing and validation procedures. Files generated from 
# CSD entries are Copyright 2014 Cambridge Crystallographic Data Centre. They 
# may be used in bona fide research applications only, and may not be copied or 
# further disseminated in any form, whether machine-readable or not, except for 
# the purposes of generating routine backup copies on your local computer 
# system.
# 
# Files arising from any other source may also contain material that is the 
# copyright of third parties, including the originator, and you should check 
# with the originator concerning the permitted uses of the information 
# contained in this CIF.
#
# For further information on the CCDC and the free tools enCIFer and Mercury
# for validating and visualising CIF files, please visit www.ccdc.cam.ac.uk
#
#######################################################################

data_TEBCEI
_symmetry_cell_setting           monoclinic
_symmetry_space_group_name_H-M   'P 21'
_symmetry_Int_Tables_number      4
loop_
_symmetry_equiv_pos_site_id
_symmetry_equiv_pos_as_xyz
1 x,y,z
2 -x,1/2+y,-z
_cell_length_a                   7.618(4)
_cell_length_b                   22.321(10)
_cell_length_c                   8.311(3)
_cell_angle_alpha                90
_cell_angle_beta                 90.14(4)
_cell_angle_gamma                90
_cell_volume                     1413.21
loop_
_atom_site_label
_atom_site_type_symbol
_atom_site_fract_x
_atom_site_fract_y
_atom_site_fract_z
P1 P 0.69870(12) 0.15976(7) 0.19507(12)
O1 O 0.82995(42) 0.21086(16) 0.23195(38)
O2 O 0.68672(35) 0.15585(16) 0.01274(33)
O3 O 0.73974(38) 0.10408(14) 0.28228(36)
O4 O 0.50854(34) 0.18109(14) 0.24886(32)
O5 O 0.25169(42) 0.14369(16) 0.05102(41)
O6 O 0.19581(40) 0.23708(17) -0.03252(42)
C1 C 0.28014(53) 0.19695(22) 0.05433(52)
C2 C 0.41799(54) 0.22393(21) 0.15882(50)
C3 C 0.45053(71) 0.28111(24) 0.17201(72)
H1 H 0.101(3) 0.219(2) -0.093(3)
H5 H 0.871(3) 0.208(2) 0.342(1)
H6 H 0.778(3) 0.168(2) -0.062(3)
H19 H 0.540(3) 0.299(2) 0.261(3)
H20 H 0.378(3) 0.315(1) 0.108(3)
P2 P 0.86151(13) 0.97450(7) 0.94275(12)
O7 O 0.72889(39) 0.92346(16) 0.90461(37)
O8 O 0.87474(35) 0.97724(16) 1.12644(31)
O9 O 0.82075(38) 1.03027(14) 0.85657(36)
O10 O 1.05180(35) 0.95294(13) 0.88825(31)
O11 O 1.30972(41) 0.99151(16) 1.08272(40)
O12 O 1.36510(41) 0.89908(17) 1.16804(41)
C4 C 1.27987(53) 0.93838(21) 1.08128(51)
C5 C 1.14280(53) 0.91055(21) 0.97799(51)
C6 C 1.11576(69) 0.85238(24) 0.96386(65)
H2 H 1.471(2) 0.915(2) 1.216(3)
H7 H 0.661(3) 0.924(3) 0.806(2)
H8 H 0.801(3) 0.948(1) 1.179(3)
H21 H 1.023(3) 0.835(2) 0.877(3)
H22 H 1.213(3) 0.822(2) 1.013(3)
P3 P 0.88333(11) 0.16920(5) 0.65554(12)
O13 O 0.91774(35) 0.19343(14) 0.82084(34)
O14 O 0.93620(33) 0.10345(14) 0.63761(35)
O15 O 0.96121(32) 0.20427(13) 0.51914(33)
O16 O 0.67327(28) 0.16608(13) 0.63146(30)
O17 O 0.33469(34) 0.14637(14) 0.58911(40)
O18 O 0.28075(32) 0.24319(14) 0.55212(38)
C7 C 0.38327(46) 0.19778(19) 0.58757(51)
C8 C 0.56680(45) 0.21645(18) 0.62517(47)
C9 C 0.61356(54) 0.27178(21) 0.65290(59)
H3 H 0.160(2) 0.233(2) 0.577(3)
H9 H 0.899(3) 0.076(2) 0.721(3)
H23 H 0.740(2) 0.285(2) 0.700(3)
H24 H 0.509(3) 0.304(1) 0.640(3)
P4 P 0.67743(11) 0.964 0.48273(11)
O19 O 0.64263(35) 0.93967(14) 0.31796(34)
O20 O 0.62738(34) 1.03087(14) 0.49988(35)
O21 O 0.59765(35) 0.92972(15) 0.61680(36)
O22 O 0.88697(28) 0.96601(13) 0.50723(31)
O23 O 1.22659(34) 0.98478(14) 0.54287(40)
O24 O 1.27923(32) 0.88821(14) 0.58632(37)
C10 C 1.17716(44) 0.93367(20) 0.55007(48)
C11 C 0.99091(50) 0.91613(19) 0.51863(51)
C12 C 0.94160(57) 0.86044(23) 0.50400(77)
H4 H 1.398(2) 0.902(2) 0.568(3)
H10 H 0.663(3) 1.056(1) 0.411(2)
H25 H 0.810(2) 0.843(2) 0.494(3)
H26 H 1.047(3) 0.829(1) 0.486(3)
N1 N 0.44187(44) 0.05765(18) 0.80627(43)
H11 H 0.567(1) 0.049(1) 0.840(2)
H12 H 0.363(2) 0.024(1) 0.844(2)
H13 H 0.435(2) 0.061(1) 0.685(1)
H14 H 0.403(3) 0.097(1) 0.856(3)
N2 N 0.11777(43) 0.07689(18) 0.33098(41)
H15 H -0.008(1) 0.090(1) 0.349(2)
H16 H 0.134(2) 0.066(1) 0.214(1)
H17 H 0.145(2) 0.041(1) 0.401(2)
H18 H 0.199(2) 0.111(1) 0.359(2)

#END
