
#######################################################################
#
#                 Cambridge Crystallographic Data Centre
#                                CCDC 
#
#######################################################################
#
# If this CIF has been generated directly or indirectly from an entry in the 
# Cambridge Structural Database, then it will include bibliographic, chemical, 
# crystal, experimental, refinement or atomic coordinate data resulting from 
# the CCDC's data processing and validation procedures. Files generated from 
# CSD entries are Copyright 2014 Cambridge Crystallographic Data Centre. They 
# may be used in bona fide research applications only, and may not be copied or 
# further disseminated in any form, whether machine-readable or not, except for 
# the purposes of generating routine backup copies on your local computer 
# system.
# 
# Files arising from any other source may also contain material that is the 
# copyright of third parties, including the originator, and you should check 
# with the originator concerning the permitted uses of the information 
# contained in this CIF.
#
# For further information on the CCDC and the free tools enCIFer and Mercury
# for validating and visualising CIF files, please visit www.ccdc.cam.ac.uk
#
#######################################################################

data_BOLKUJ
_symmetry_cell_setting           orthorhombic
_symmetry_space_group_name_H-M   'F 2 d d'
_symmetry_Int_Tables_number      43
loop_
_symmetry_equiv_pos_site_id
_symmetry_equiv_pos_as_xyz
1 x,y,z
2 1/4+x,1/4+y,1/4-z
3 x,-y,-z
4 1/4+x,1/4-y,1/4+z
5 x,1/2+y,1/2+z
6 1/4+x,3/4+y,3/4-z
7 x,1/2-y,1/2-z
8 1/4+x,3/4-y,3/4+z
9 1/2+x,y,1/2+z
10 3/4+x,1/4+y,3/4-z
11 1/2+x,-y,1/2-z
12 3/4+x,1/4-y,3/4+z
13 1/2+x,1/2+y,z
14 3/4+x,3/4+y,1/4-z
15 1/2+x,1/2-y,-z
16 3/4+x,3/4-y,1/4+z
_cell_length_a                   8.710(5)
_cell_length_b                   28.868(7)
_cell_length_c                   31.206(6)
_cell_angle_alpha                90
_cell_angle_beta                 90
_cell_angle_gamma                90
_cell_volume                     7846.45
loop_
_atom_site_label
_atom_site_type_symbol
_atom_site_fract_x
_atom_site_fract_y
_atom_site_fract_z
P1 P 0.11166(19) 0.45449(5) 0.04934(5)
O1 O 0.1623(8) 0.50354(18) 0.05471(16)
O2 O 0.1307(11) 0.43899(19) 0.00475(18)
O3 O -0.0599(8) 0.4564(3) 0.0588(3)
O4 O 0.1847(9) 0.42355(18) 0.08004(18)
O5 O -0.0156(15) 0.0000 0.0000
O6 O 0.2802(11) 0.0000 0.0000
O7 O 0.0634(6) 0.29565(16) 0.00447(16)
C1 C 0.0592(11) 0.2911(3) -0.0399(3)
H1 H -0.0463 0.2879 -0.0494
H2 H 0.1150 0.2636 -0.0485
C2 C 0.1288(10) 0.3323(3) -0.0599(2)
H3 H 0.1147 0.3311 -0.0907
H4 H 0.0794 0.3601 -0.0493
O8 O 0.2914(7) 0.33347(16) -0.04987(15)
C3 C 0.3674(14) 0.3721(3) -0.0674(3)
H5 H 0.3262 0.4004 -0.0552
H6 H 0.3515 0.3730 -0.0982
C4 C 0.5349(14) 0.3686(3) -0.0579(3)
H7 H 0.5747 0.3393 -0.0682
H8 H 0.5899 0.3934 -0.0722
O9 O 0.5566(7) 0.37198(19) -0.0126(2)
C5 C 0.7104(12) 0.3677(3) 0.0002(5)
H9 H 0.7710 0.3916 -0.0137
H10 H 0.7496 0.3379 -0.0090
C6 C 0.7275(12) 0.3719(3) 0.0468(5)
H11 H 0.8356 0.3727 0.0542
H12 H 0.6809 0.4005 0.0565
O10 O 0.6550(6) 0.33325(18) 0.0677(2)
C7 C 0.6580(10) 0.3375(3) 0.1125(3)
H13 H 0.6004 0.3647 0.1211
H14 H 0.7631 0.3412 0.1222
C8 C 0.5907(10) 0.2962(4) 0.1318(3)
H15 H 0.6431 0.2688 0.1215
H16 H 0.6018 0.2975 0.1627
O11 O 0.4318(7) 0.29423(16) 0.12065(15)
C9 C 0.3601(12) 0.2544(3) 0.1379(2)
H17 H 0.3738 0.2534 0.1687
H18 H 0.4045 0.2266 0.1256
C10 C 0.1977(12) 0.2574(3) 0.1272(2)
H19 H 0.1437 0.2319 0.1408
H20 H 0.1565 0.2861 0.1387
O12 O 0.1705(6) 0.25600(17) 0.08202(16)
C11 C 0.0146(9) 0.2611(3) 0.0715(3)
H21 H -0.0219 0.2911 0.0811
H22 H -0.0453 0.2374 0.0859
C12 C -0.0043(9) 0.2570(3) 0.0257(3)
H23 H 0.0437 0.2286 0.0158
H24 H -0.1128 0.2555 0.0188
N1 N 0.3149(6) 0.34398(17) 0.04559(17)
S1? S 0.11166(19) 0.45449(5) 0.04934(5)

#END
